Circuit: * C:\Users\syakilaish\Downloads\PTS06_2024_8\Op8_21\op8_21_tb_direct_ac.asc

Ignoring BSIM parameter XL
Ignoring BSIM parameter XW
Ignoring BSIM parameter HDIF
Ignoring BSIM parameter XL
Ignoring BSIM parameter XW
Ignoring BSIM parameter HDIF
Warning: Pd = 0 is less than W.
Warning: Ps = 0 is less than W.
Warning: Pd = 0 is less than W.
Warning: Ps = 0 is less than W.
Warning: Pd = 0 is less than W.
Warning: Ps = 0 is less than W.
Warning: Pd = 0 is less than W.
Warning: Ps = 0 is less than W.
Warning: Pd = 0 is less than W.
Warning: Ps = 0 is less than W.
Warning: Pd = 0 is less than W.
Warning: Ps = 0 is less than W.
Warning: Pd = 0 is less than W.
Warning: Ps = 0 is less than W.
Warning: Pd = 0 is less than W.
Warning: Ps = 0 is less than W.
Warning: Pd = 0 is less than W.
Warning: Ps = 0 is less than W.
Warning: Pd = 0 is less than W.
Warning: Ps = 0 is less than W.
Warning: Pd = 0 is less than W.
Warning: Ps = 0 is less than W.
Warning: Pd = 0 is less than W.
Warning: Ps = 0 is less than W.
Warning: Pd = 0 is less than W.
Warning: Ps = 0 is less than W.
Direct Newton iteration failed to find .op point.  (Use ".option noopiter" to skip.)
Starting Gmin stepping
Gmin = 10
Gmin = 1.07374
Gmin = 0.115292
Gmin = 0.0123794
Gmin = 0.00132923
Gmin = 0.000142725
Gmin = 1.5325e-005
Gmin = 1.6455e-006
Gmin = 1.76685e-007
Gmin = 1.89714e-008
Gmin = 2.03704e-009
Gmin = 2.18725e-010
Gmin = 2.34854e-011
Gmin = 2.52173e-012
Gmin = 2.70769e-013
Gmin = 0
Gmin stepping succeeded in finding the operating point.

.step vbias=1.8 ccap=2e-013
.step vbias=1.9 ccap=2e-013
.step vbias=2 ccap=2e-013
.step vbias=2.1 ccap=2e-013
.step vbias=2.2 ccap=2e-013
.step vbias=2.3 ccap=2e-013
.step vbias=2.4 ccap=2e-013
.step vbias=2.5 ccap=2e-013
.step vbias=2.6 ccap=2e-013
.step vbias=2.7 ccap=2e-013
.step vbias=2.8 ccap=2e-013
.step vbias=2.9 ccap=2e-013
.step vbias=3 ccap=2e-013
.step vbias=3.1 ccap=2e-013
.step vbias=3.2 ccap=2e-013
.step vbias=1.8 ccap=7e-013
.step vbias=1.9 ccap=7e-013
.step vbias=2 ccap=7e-013
.step vbias=2.1 ccap=7e-013
.step vbias=2.2 ccap=7e-013
.step vbias=2.3 ccap=7e-013
.step vbias=2.4 ccap=7e-013
.step vbias=2.5 ccap=7e-013
.step vbias=2.6 ccap=7e-013
.step vbias=2.7 ccap=7e-013
.step vbias=2.8 ccap=7e-013
.step vbias=2.9 ccap=7e-013
.step vbias=3 ccap=7e-013
.step vbias=3.1 ccap=7e-013
.step vbias=3.2 ccap=7e-013
.step vbias=1.8 ccap=1.2e-012
.step vbias=1.9 ccap=1.2e-012
.step vbias=2 ccap=1.2e-012
.step vbias=2.1 ccap=1.2e-012
.step vbias=2.2 ccap=1.2e-012
.step vbias=2.3 ccap=1.2e-012
.step vbias=2.4 ccap=1.2e-012
.step vbias=2.5 ccap=1.2e-012
.step vbias=2.6 ccap=1.2e-012
.step vbias=2.7 ccap=1.2e-012
.step vbias=2.8 ccap=1.2e-012
.step vbias=2.9 ccap=1.2e-012
.step vbias=3 ccap=1.2e-012
.step vbias=3.1 ccap=1.2e-012
.step vbias=3.2 ccap=1.2e-012
.step vbias=1.8 ccap=1.7e-012
.step vbias=1.9 ccap=1.7e-012
.step vbias=2 ccap=1.7e-012
.step vbias=2.1 ccap=1.7e-012
.step vbias=2.2 ccap=1.7e-012
.step vbias=2.3 ccap=1.7e-012
.step vbias=2.4 ccap=1.7e-012
.step vbias=2.5 ccap=1.7e-012
.step vbias=2.6 ccap=1.7e-012
.step vbias=2.7 ccap=1.7e-012
