Circuit: * C:\Users\syakilaish\Downloads\PTS06_2024_8\Op8_21\op8_21_tb_direct.asc

Ignoring BSIM parameter XL
Ignoring BSIM parameter XW
Ignoring BSIM parameter HDIF
Ignoring BSIM parameter XL
Ignoring BSIM parameter XW
Ignoring BSIM parameter HDIF
Warning: Pd = 0 is less than W.
Warning: Ps = 0 is less than W.
Warning: Pd = 0 is less than W.
Warning: Ps = 0 is less than W.
Warning: Pd = 0 is less than W.
Warning: Ps = 0 is less than W.
Warning: Pd = 0 is less than W.
Warning: Ps = 0 is less than W.
Warning: Pd = 0 is less than W.
Warning: Ps = 0 is less than W.
Warning: Pd = 0 is less than W.
Warning: Ps = 0 is less than W.
Warning: Pd = 0 is less than W.
Warning: Ps = 0 is less than W.
Warning: Pd = 0 is less than W.
Warning: Ps = 0 is less than W.
Warning: Pd = 0 is less than W.
Warning: Ps = 0 is less than W.
Warning: Pd = 0 is less than W.
Warning: Ps = 0 is less than W.
Warning: Pd = 0 is less than W.
Warning: Ps = 0 is less than W.
Warning: Pd = 0 is less than W.
Warning: Ps = 0 is less than W.
Warning: Pd = 0 is less than W.
Warning: Ps = 0 is less than W.
Direct Newton iteration failed to find .op point.  (Use ".option noopiter" to skip.)
Starting Gmin stepping
Gmin = 10
Gmin = 1.07374
Gmin = 0.115292
Gmin = 0.0123794
Gmin = 0.00132923
Gmin = 0.000142725
Gmin = 1.5325e-005
Gmin = 1.6455e-006
Gmin = 1.76685e-007
Gmin = 1.89714e-008
Gmin = 2.03704e-009
Gmin = 2.18725e-010
Gmin = 2.34854e-011
Gmin = 2.52173e-012
Gmin = 2.70769e-013
Gmin = 0
Gmin stepping succeeded in finding the operating point.

Direct Newton iteration failed to find .op point.  (Use ".option noopiter" to skip.)
Starting Gmin stepping
Gmin = 10
Gmin = 1.07374
Gmin = 0.115292
Gmin = 0.0123794
Gmin = 0.00132923
Gmin = 0.000142725
Gmin = 1.5325e-005
Gmin = 1.6455e-006
vernier = 0.5
vernier = 0.25
vernier = 0.125
vernier = 0.0625
Gmin = 5.39199e-007
vernier = 0.03125
vernier = 0.015625
vernier = 0.0078125
vernier = 0.0104167
Gmin = 5.31194e-007
vernier = 0.0138889
Gmin = 5.14876e-007
vernier = 0.0185185
vernier = 0.0246913
Gmin = 4.88626e-007
vernier = 0.0329218
vernier = 0.0438957
Gmin = 4.49565e-007
vernier = 0.0585276
Gmin = 3.94441e-007
vernier = 0.0780367
vernier = 0.104049
Gmin = 3.16975e-007
vernier = 0.138732
vernier = 0.0693659
vernier = 0.034683
vernier = 0.0173415
vernier = 0.00867074
vernier = 0.00433537
Gmin = 2.81258e-007
vernier = 0.00216769
vernier = 0.00108384
vernier = 0.000541921
vernier = 0.000406441
Gmin = 0
Gmin stepping failed

Starting source stepping with srcstepmethod=0
Source Step = 3.0303%
Source Step = 33.3333%
Source Step = 63.6364%
Source Step = 93.9394%
Source stepping succeeded in finding the operating point.


Date: Wed Jan 22 10:08:29 2025
Total elapsed time: 0.280 seconds.

tnom = 27
temp = 27
method = trap
totiter = 3329
traniter = 0
tranpoints = 0
accept = 0
rejected = 0
matrix size = 27
fillins = 20
solver = Normal
Thread vector: 14.9/12.7[2] 0.0/0.0[0] 2.0/1.0[2] 0.1/2.4[1]  2592/500
Matrix Compiler1: 4.05 KB object code size  0.8/0.5/[0.3]
Matrix Compiler2: 3.25 KB object code size  1.4/0.5/[0.2]

